Circuit: *** SPICE deck for cell ChargePump{sch} from library Phase-Locked-Loop

Instance "mnmos-4@0": Length shorter than recommended for a level 3 MOSFET.
Instance "mnmos-4@0": Width narrower than recommended for a level 3 MOSFET.
Direct Newton iteration for .op point succeeded.

Date: Thu Oct 17 00:16:07 2013
Total elapsed time: 0.173 seconds.

tnom = 27
temp = 27
method = modified trap
totiter = 2299
traniter = 2295
tranpoints = 1142
accept = 1115
rejected = 27
matrix size = 6
fillins = 0
solver = Normal
Matrix Compiler1: 164 bytes object code size  0.8/0.9/[0.7]
Matrix Compiler2: 414 bytes object code size  1.1/1.1/[0.8]


