Circuit: *** SPICE deck for cell DFlipFlop{sch} from library Phase-Locked-Loop

Instance "mpmos-4@7": Length shorter than recommended for a level 3 MOSFET.
Instance "mpmos-4@7": Width narrower than recommended for a level 3 MOSFET.
Instance "mpmos-4@6": Length shorter than recommended for a level 3 MOSFET.
Instance "mpmos-4@6": Width narrower than recommended for a level 3 MOSFET.
Instance "mpmos-4@5": Length shorter than recommended for a level 3 MOSFET.
Instance "mpmos-4@5": Width narrower than recommended for a level 3 MOSFET.
Instance "mpmos-4@4": Length shorter than recommended for a level 3 MOSFET.
Instance "mpmos-4@4": Width narrower than recommended for a level 3 MOSFET.
Instance "mpmos-4@3": Length shorter than recommended for a level 3 MOSFET.
Instance "mpmos-4@3": Width narrower than recommended for a level 3 MOSFET.
Instance "mpmos-4@2": Length shorter than recommended for a level 3 MOSFET.
Instance "mpmos-4@2": Width narrower than recommended for a level 3 MOSFET.
Instance "mpmos-4@1": Length shorter than recommended for a level 3 MOSFET.
Instance "mpmos-4@1": Width narrower than recommended for a level 3 MOSFET.
Instance "mnmos-4@7": Length shorter than recommended for a level 3 MOSFET.
Instance "mnmos-4@7": Width narrower than recommended for a level 3 MOSFET.
Instance "mnmos-4@6": Length shorter than recommended for a level 3 MOSFET.
Instance "mnmos-4@6": Width narrower than recommended for a level 3 MOSFET.
Instance "mnmos-4@5": Length shorter than recommended for a level 3 MOSFET.
Instance "mnmos-4@5": Width narrower than recommended for a level 3 MOSFET.
Instance "mnmos-4@4": Length shorter than recommended for a level 3 MOSFET.
Instance "mnmos-4@4": Width narrower than recommended for a level 3 MOSFET.
Instance "mnmos-4@3": Length shorter than recommended for a level 3 MOSFET.
Instance "mnmos-4@3": Width narrower than recommended for a level 3 MOSFET.
Instance "mnmos-4@2": Length shorter than recommended for a level 3 MOSFET.
Instance "mnmos-4@2": Width narrower than recommended for a level 3 MOSFET.
Direct Newton iteration for .op point succeeded.

Date: Tue Oct 15 19:04:53 2013
Total elapsed time: 0.531 seconds.

tnom = 27
temp = 27
method = modified trap
totiter = 13517
traniter = 13496
tranpoints = 3572
accept = 2943
rejected = 629
matrix size = 15
fillins = 0
solver = Normal
Matrix Compiler1: 918 bytes object code size  1.1/0.7/[0.5]
Matrix Compiler2: off  [0.7]/1.4/1.5


