Circuit: *** SPICE deck for cell DynamicDFlipFlop{sch} from library Phase-Locked-Loop

WARNING: Less than two connections to node R.  This node is used by VR.
Instance "mpmos-4@10": Length shorter than recommended for a level 3 MOSFET.
Instance "mpmos-4@10": Width narrower than recommended for a level 3 MOSFET.
Instance "mpmos-4@9": Length shorter than recommended for a level 3 MOSFET.
Instance "mpmos-4@9": Width narrower than recommended for a level 3 MOSFET.
Instance "mpmos-4@8": Length shorter than recommended for a level 3 MOSFET.
Instance "mpmos-4@8": Width narrower than recommended for a level 3 MOSFET.
Instance "mpmos-4@7": Length shorter than recommended for a level 3 MOSFET.
Instance "mpmos-4@7": Width narrower than recommended for a level 3 MOSFET.
Instance "mpmos-4@0": Length shorter than recommended for a level 3 MOSFET.
Instance "mpmos-4@0": Width narrower than recommended for a level 3 MOSFET.
Instance "mnmos-4@12": Length shorter than recommended for a level 3 MOSFET.
Instance "mnmos-4@12": Width narrower than recommended for a level 3 MOSFET.
Instance "mnmos-4@11": Length shorter than recommended for a level 3 MOSFET.
Instance "mnmos-4@11": Width narrower than recommended for a level 3 MOSFET.
Instance "mnmos-4@10": Length shorter than recommended for a level 3 MOSFET.
Instance "mnmos-4@10": Width narrower than recommended for a level 3 MOSFET.
Instance "mnmos-4@9": Length shorter than recommended for a level 3 MOSFET.
Instance "mnmos-4@9": Width narrower than recommended for a level 3 MOSFET.
Instance "mnmos-4@8": Length shorter than recommended for a level 3 MOSFET.
Instance "mnmos-4@8": Width narrower than recommended for a level 3 MOSFET.
Instance "mnmos-4@0": Length shorter than recommended for a level 3 MOSFET.
Instance "mnmos-4@0": Width narrower than recommended for a level 3 MOSFET.
Direct Newton iteration for .op point succeeded.

Date: Mon Nov 04 14:14:02 2013
Total elapsed time: 0.452 seconds.

tnom = 27
temp = 27
method = modified trap
totiter = 4603
traniter = 4569
tranpoints = 1449
accept = 1355
rejected = 94
matrix size = 15
fillins = 0
solver = Normal
Matrix Compiler1: 846 bytes object code size  1.3/0.8/[0.3]
Matrix Compiler2: off  [0.7]/1.5/1.3


