Circuit: *** SPICE deck for cell myNAND{sch} from library Phase-Locked-Loop

WARNING: Less than two connections to node DD.  This node is used by VDD.
Instance "mnmos-4@2": Length shorter than recommended for a level 3 MOSFET.
Instance "mnmos-4@2": Width narrower than recommended for a level 3 MOSFET.
Direct Newton iteration for .op point succeeded.

Date: Mon Oct 14 13:48:48 2013
Total elapsed time: 0.302 seconds.

tnom = 27
temp = 27
method = modified trap
totiter = 2086
traniter = 2082
tranpoints = 1042
accept = 1042
rejected = 0
matrix size = 7
fillins = 0
solver = Normal
Matrix Compiler1: 232 bytes object code size  0.8/0.9/[0.8]
Matrix Compiler2:      36 opcodes  0.8/[0.8]/0.9


