Circuit: *** SPICE deck for cell NAND{sch} from library Phase-Locked-Loop

Instance "mpmos-4@1": Length shorter than recommended for a level 3 MOSFET.
Instance "mpmos-4@1": Width narrower than recommended for a level 3 MOSFET.
Instance "mpmos-4@0": Length shorter than recommended for a level 3 MOSFET.
Instance "mpmos-4@0": Width narrower than recommended for a level 3 MOSFET.
Instance "mnmos-4@1": Length shorter than recommended for a level 3 MOSFET.
Instance "mnmos-4@1": Width narrower than recommended for a level 3 MOSFET.
Instance "mnmos-4@0": Length shorter than recommended for a level 3 MOSFET.
Instance "mnmos-4@0": Width narrower than recommended for a level 3 MOSFET.
Direct Newton iteration for .op point succeeded.

Date: Mon Oct 14 13:35:39 2013
Total elapsed time: 0.272 seconds.

tnom = 27
temp = 27
method = modified trap
totiter = 2102
traniter = 2082
tranpoints = 1042
accept = 1042
rejected = 0
matrix size = 8
fillins = 0
solver = Normal
Matrix Compiler1: 336 bytes object code size  1.1/0.9/[0.7]
Matrix Compiler2: off  [1.0]/1.1/1.2


