Circuit: *** SPICE deck for cell PhaseDetector{sch} from library Phase-Locked-Loop

Instance "mpmos-4@3": Width narrower than recommended for a level 3 MOSFET.
Instance "mpmos-4@2": Length shorter than recommended for a level 3 MOSFET.
Instance "mpmos-4@2": Width narrower than recommended for a level 3 MOSFET.
Instance "mpmos-4@1": Length shorter than recommended for a level 3 MOSFET.
Instance "mpmos-4@1": Width narrower than recommended for a level 3 MOSFET.
Instance "mnmos-4@5": Length shorter than recommended for a level 3 MOSFET.
Instance "mnmos-4@5": Width narrower than recommended for a level 3 MOSFET.
Instance "mnmos-4@4": Length shorter than recommended for a level 3 MOSFET.
Instance "mnmos-4@4": Width narrower than recommended for a level 3 MOSFET.
Direct Newton iteration for .op point succeeded.

Date: Sun Oct 13 20:50:59 2013
Total elapsed time: 0.312 seconds.

tnom = 27
temp = 27
method = modified trap
totiter = 4085
traniter = 4072
tranpoints = 1867
accept = 1735
rejected = 132
matrix size = 9
fillins = 0
solver = Normal
Matrix Compiler1: 332 bytes object code size  0.9/1.0/[0.7]
Matrix Compiler2: 755 bytes object code size  1.1/1.2/[1.2]


