Circuit: *** SPICE deck for cell PhaseFrequencyDetector{sch} from library

Instance "mpmos-4@32": Length shorter than recommended for a level 3 MOSFET.
Instance "mpmos-4@32": Width narrower than recommended for a level 3 MOSFET.
Instance "mpmos-4@31": Length shorter than recommended for a level 3 MOSFET.
Instance "mpmos-4@31": Width narrower than recommended for a level 3 MOSFET.
Instance "mpmos-4@30": Length shorter than recommended for a level 3 MOSFET.
Instance "mpmos-4@30": Width narrower than recommended for a level 3 MOSFET.
Instance "mpmos-4@29": Length shorter than recommended for a level 3 MOSFET.
Instance "mpmos-4@29": Width narrower than recommended for a level 3 MOSFET.
Instance "mpmos-4@28": Length shorter than recommended for a level 3 MOSFET.
Instance "mpmos-4@28": Width narrower than recommended for a level 3 MOSFET.
Instance "mpmos-4@27": Length shorter than recommended for a level 3 MOSFET.
Instance "mpmos-4@27": Width narrower than recommended for a level 3 MOSFET.
Instance "mpmos-4@25": Length shorter than recommended for a level 3 MOSFET.
Instance "mpmos-4@25": Width narrower than recommended for a level 3 MOSFET.
Instance "mpmos-4@24": Length shorter than recommended for a level 3 MOSFET.
Instance "mpmos-4@24": Width narrower than recommended for a level 3 MOSFET.
Instance "mpmos-4@23": Length shorter than recommended for a level 3 MOSFET.
Instance "mpmos-4@23": Width narrower than recommended for a level 3 MOSFET.
Instance "mpmos-4@22": Length shorter than recommended for a level 3 MOSFET.
Instance "mpmos-4@22": Width narrower than recommended for a level 3 MOSFET.
Instance "mpmos-4@21": Length shorter than recommended for a level 3 MOSFET.
Instance "mpmos-4@21": Width narrower than recommended for a level 3 MOSFET.
Instance "mpmos-4@20": Length shorter than recommended for a level 3 MOSFET.
Instance "mpmos-4@20": Width narrower than recommended for a level 3 MOSFET.
Instance "mpmos-4@19": Length shorter than recommended for a level 3 MOSFET.
Instance "mpmos-4@19": Width narrower than recommended for a level 3 MOSFET.
Instance "mpmos-4@18": Length shorter than recommended for a level 3 MOSFET.
Instance "mpmos-4@18": Width narrower than recommended for a level 3 MOSFET.
Instance "mpmos-4@17": Length shorter than recommended for a level 3 MOSFET.
Instance "mpmos-4@17": Width narrower than recommended for a level 3 MOSFET.
Instance "mpmos-4@16": Length shorter than recommended for a level 3 MOSFET.
Instance "mpmos-4@16": Width narrower than recommended for a level 3 MOSFET.
Instance "mnmos-4@28": Length shorter than recommended for a level 3 MOSFET.
Instance "mnmos-4@28": Width narrower than recommended for a level 3 MOSFET.
Instance "mnmos-4@27": Length shorter than recommended for a level 3 MOSFET.
Instance "mnmos-4@27": Width narrower than recommended for a level 3 MOSFET.
Instance "mnmos-4@26": Length shorter than recommended for a level 3 MOSFET.
Instance "mnmos-4@26": Width narrower than recommended for a level 3 MOSFET.
Instance "mnmos-4@24": Length shorter than recommended for a level 3 MOSFET.
Instance "mnmos-4@24": Width narrower than recommended for a level 3 MOSFET.
Instance "mnmos-4@23": Length shorter than recommended for a level 3 MOSFET.
Instance "mnmos-4@23": Width narrower than recommended for a level 3 MOSFET.
Instance "mnmos-4@22": Length shorter than recommended for a level 3 MOSFET.
Instance "mnmos-4@22": Width narrower than recommended for a level 3 MOSFET.
Instance "mnmos-4@21": Length shorter than recommended for a level 3 MOSFET.
Instance "mnmos-4@21": Width narrower than recommended for a level 3 MOSFET.
Instance "mnmos-4@20": Length shorter than recommended for a level 3 MOSFET.
Instance "mnmos-4@20": Width narrower than recommended for a level 3 MOSFET.
Instance "mnmos-4@19": Length shorter than recommended for a level 3 MOSFET.
Instance "mnmos-4@19": Width narrower than recommended for a level 3 MOSFET.
Instance "mnmos-4@18": Length shorter than recommended for a level 3 MOSFET.
Instance "mnmos-4@18": Width narrower than recommended for a level 3 MOSFET.
Instance "mnmos-4@17": Length shorter than recommended for a level 3 MOSFET.
Instance "mnmos-4@17": Width narrower than recommended for a level 3 MOSFET.
Instance "mnmos-4@16": Length shorter than recommended for a level 3 MOSFET.
Instance "mnmos-4@16": Width narrower than recommended for a level 3 MOSFET.
Instance "mnmos-4@15": Length shorter than recommended for a level 3 MOSFET.
Instance "mnmos-4@15": Width narrower than recommended for a level 3 MOSFET.
Instance "mnmos-4@14": Length shorter than recommended for a level 3 MOSFET.
Instance "mnmos-4@14": Width narrower than recommended for a level 3 MOSFET.
Direct Newton iteration for .op point succeeded.

Date: Fri Nov 15 22:55:43 2013
Total elapsed time: 0.410 seconds.

tnom = 27
temp = 27
method = modified trap
totiter = 3574
traniter = 3533
tranpoints = 1157
accept = 1127
rejected = 30
matrix size = 25
fillins = 0
solver = Normal
Thread vector: 60.7/36.5[3] 21.4/9.4[3] 7.8/4.3[3] 0.6/1.9[1]  2592/500
Matrix Compiler1: 2.23 KB object code size  1.6/1.3/[0.4]
Matrix Compiler2: off  [1.1]/2.0/2.3


