Circuit: *** SPICE deck for cell v0.2{sch} from library DynamicDFF

WARNING: Less than two connections to node R.  This node is used by VR.
Instance "mpmos-4@4": Length shorter than recommended for a level 3 MOSFET.
Instance "mpmos-4@4": Width narrower than recommended for a level 3 MOSFET.
Instance "mpmos-4@3": Length shorter than recommended for a level 3 MOSFET.
Instance "mpmos-4@3": Width narrower than recommended for a level 3 MOSFET.
Instance "mpmos-4@2": Length shorter than recommended for a level 3 MOSFET.
Instance "mpmos-4@2": Width narrower than recommended for a level 3 MOSFET.
Instance "mpmos-4@1": Length shorter than recommended for a level 3 MOSFET.
Instance "mpmos-4@1": Width narrower than recommended for a level 3 MOSFET.
Instance "mpmos-4@0": Length shorter than recommended for a level 3 MOSFET.
Instance "mpmos-4@0": Width narrower than recommended for a level 3 MOSFET.
Instance "mnmos-4@5": Length shorter than recommended for a level 3 MOSFET.
Instance "mnmos-4@5": Width narrower than recommended for a level 3 MOSFET.
Instance "mnmos-4@4": Length shorter than recommended for a level 3 MOSFET.
Instance "mnmos-4@4": Width narrower than recommended for a level 3 MOSFET.
Instance "mnmos-4@3": Length shorter than recommended for a level 3 MOSFET.
Instance "mnmos-4@3": Width narrower than recommended for a level 3 MOSFET.
Instance "mnmos-4@2": Length shorter than recommended for a level 3 MOSFET.
Instance "mnmos-4@2": Width narrower than recommended for a level 3 MOSFET.
Instance "mnmos-4@1": Length shorter than recommended for a level 3 MOSFET.
Instance "mnmos-4@1": Width narrower than recommended for a level 3 MOSFET.
Instance "mnmos-4@0": Length shorter than recommended for a level 3 MOSFET.
Instance "mnmos-4@0": Width narrower than recommended for a level 3 MOSFET.
Direct Newton iteration for .op point succeeded.

Date: Fri Nov 08 22:05:35 2013
Total elapsed time: 0.660 seconds.

tnom = 27
temp = 27
method = modified trap
totiter = 5349
traniter = 5319
tranpoints = 1578
accept = 1449
rejected = 129
matrix size = 15
fillins = 0
solver = Normal
Matrix Compiler1: 846 bytes object code size  1.5/1.4/[1.0]
Matrix Compiler2:     107 opcodes  1.8/[1.9]/2.0


