Circuit: *** SPICE deck for cell v0.3{sch} from library DynamicDFF

Instance "mpmos-4@5": Length shorter than recommended for a level 3 MOSFET.
Instance "mpmos-4@4": Length shorter than recommended for a level 3 MOSFET.
Instance "mpmos-4@4": Width narrower than recommended for a level 3 MOSFET.
Instance "mpmos-4@3": Length shorter than recommended for a level 3 MOSFET.
Instance "mpmos-4@3": Width narrower than recommended for a level 3 MOSFET.
Instance "mpmos-4@2": Length shorter than recommended for a level 3 MOSFET.
Instance "mpmos-4@2": Width narrower than recommended for a level 3 MOSFET.
Instance "mpmos-4@1": Length shorter than recommended for a level 3 MOSFET.
Instance "mpmos-4@1": Width narrower than recommended for a level 3 MOSFET.
Instance "mpmos-4@0": Length shorter than recommended for a level 3 MOSFET.
Instance "mpmos-4@0": Width narrower than recommended for a level 3 MOSFET.
Instance "mnmos-4@5": Length shorter than recommended for a level 3 MOSFET.
Instance "mnmos-4@5": Width narrower than recommended for a level 3 MOSFET.
Instance "mnmos-4@4": Length shorter than recommended for a level 3 MOSFET.
Instance "mnmos-4@4": Width narrower than recommended for a level 3 MOSFET.
Instance "mnmos-4@3": Length shorter than recommended for a level 3 MOSFET.
Instance "mnmos-4@3": Width narrower than recommended for a level 3 MOSFET.
Instance "mnmos-4@2": Length shorter than recommended for a level 3 MOSFET.
Instance "mnmos-4@2": Width narrower than recommended for a level 3 MOSFET.
Instance "mnmos-4@1": Length shorter than recommended for a level 3 MOSFET.
Instance "mnmos-4@1": Width narrower than recommended for a level 3 MOSFET.
Instance "mnmos-4@0": Length shorter than recommended for a level 3 MOSFET.
Instance "mnmos-4@0": Width narrower than recommended for a level 3 MOSFET.
Direct Newton iteration for .op point succeeded.
Heightened Def Con from 2.00779e-009 to 2.01005e-009
Heightened Def Con from 2.01008e-009 to 2.0218e-009

Date: Thu Nov 14 13:13:25 2013
Total elapsed time: 0.628 seconds.

tnom = 27
temp = 27
method = modified trap
totiter = 6004
traniter = 5967
tranpoints = 1683
accept = 1508
rejected = 177
matrix size = 15
fillins = 0
solver = Normal
Matrix Compiler1: 918 bytes object code size  1.8/1.1/[0.3]
Matrix Compiler2: off  [1.0]/1.9/1.4


