Circuit: *** SPICE deck for cell VCO{sch} from library Phase-Locked-Loop

WARNING: Less than two connections to node PULSE@0_PLUS.  This node is used by VPULSE@0.
Instance "mpmos-4@6": Length shorter than recommended for a level 3 MOSFET.
Instance "mpmos-4@6": Width narrower than recommended for a level 3 MOSFET.
Instance "mpmos-4@5": Length shorter than recommended for a level 3 MOSFET.
Instance "mpmos-4@5": Width narrower than recommended for a level 3 MOSFET.
Instance "mpmos-4@4": Length shorter than recommended for a level 3 MOSFET.
Instance "mpmos-4@4": Width narrower than recommended for a level 3 MOSFET.
Instance "mpmos-4@3": Length shorter than recommended for a level 3 MOSFET.
Instance "mpmos-4@3": Width narrower than recommended for a level 3 MOSFET.
Instance "mpmos-4@2": Length shorter than recommended for a level 3 MOSFET.
Instance "mpmos-4@2": Width narrower than recommended for a level 3 MOSFET.
Instance "mpmos-4@1": Length shorter than recommended for a level 3 MOSFET.
Instance "mpmos-4@1": Width narrower than recommended for a level 3 MOSFET.
Instance "mpmos-4@0": Length shorter than recommended for a level 3 MOSFET.
Instance "mpmos-4@0": Width narrower than recommended for a level 3 MOSFET.
Instance "mnmos-4@7": Length shorter than recommended for a level 3 MOSFET.
Instance "mnmos-4@7": Width narrower than recommended for a level 3 MOSFET.
Instance "mnmos-4@6": Length shorter than recommended for a level 3 MOSFET.
Instance "mnmos-4@6": Width narrower than recommended for a level 3 MOSFET.
Instance "mnmos-4@5": Length shorter than recommended for a level 3 MOSFET.
Instance "mnmos-4@5": Width narrower than recommended for a level 3 MOSFET.
Instance "mnmos-4@4": Length shorter than recommended for a level 3 MOSFET.
Instance "mnmos-4@4": Width narrower than recommended for a level 3 MOSFET.
Instance "mnmos-4@3": Length shorter than recommended for a level 3 MOSFET.
Instance "mnmos-4@3": Width narrower than recommended for a level 3 MOSFET.
Instance "mnmos-4@1": Length shorter than recommended for a level 3 MOSFET.
Instance "mnmos-4@1": Width narrower than recommended for a level 3 MOSFET.
Instance "mnmos-4@0": Length shorter than recommended for a level 3 MOSFET.
Instance "mnmos-4@0": Width narrower than recommended for a level 3 MOSFET.
Direct Newton iteration for .op point succeeded.

Date: Wed Oct 16 19:41:18 2013
Total elapsed time: 1.049 seconds.

tnom = 27
temp = 27
method = modified trap
totiter = 18464
traniter = 18449
tranpoints = 3266
accept = 2388
rejected = 878
matrix size = 16
fillins = 6
solver = Normal
Matrix Compiler1: 1.76 KB object code size  2.0/1.8/[0.9]
Matrix Compiler2: off  [1.4]/2.2/3.1


